! layer with T and S
NOSLIP = False 
BIHARMONIC = False
LAPLACIAN = True
KH_VEL_SCALE = 0.005
SMAGORINSKY_KH = True
SMAG_LAP_CONST = 0.05
BOUSSINESQ = False
BBL_THICK_MAX = 10.0
CORIOLIS_SCHEME = "SADOURNY75_ENSTRO"
KH_ETA_VEL_SCALE = 0.01
DETANGLE_INTERFACES = True
DETANGLE_TIMESCALE = 0.0
